
cp qsub_itXX.csh @INSTALLPATH/MITgcm/verification/global_pcb_llc90/run/qsub_itXX.csh
qsub @INSTALLPATH/MITgcm/verification/global_pcb_llc90/run/qsub_itXX.csh > JOBIDS

cp sendgcm.sh @INSTALLPATH/MITgcm/verification/global_pcb_llc90/run/sendgcm.sh
qsub @INSTALLPATH/MITgcm/verification/global_pcb_llc90/run/sendgcm.sh >> JOBIDS

cp runonce.sh @INSTALLPATH/GEOS-Chem/run/runonce.sh
qsub @INSTALLPATH/GEOS-Chem/run/runonce.sh >> JOBIDS

cp sendgeos.sh @INSTALLPATH/GEOS-Chem/run/sendgeos.sh
qsub @INSTALLPATH/GEOS-Chem/run/sendgeos.sh >> JOBIDS
#qsub @INSTALLPATH/example.sh